Version 4
SHEET 1 880 680
WIRE -4096 -3280 -4272 -3280
WIRE -3744 -3280 -4096 -3280
WIRE -3744 -3264 -3744 -3280
WIRE -4272 -3216 -4272 -3280
WIRE -4096 -3216 -4096 -3280
WIRE -3744 -3184 -3744 -3200
WIRE -3744 -3168 -3744 -3184
WIRE -4272 -3072 -4272 -3136
WIRE -3968 -3072 -4272 -3072
WIRE -3600 -3072 -3904 -3072
WIRE -4096 -3008 -4096 -3136
WIRE -3968 -3008 -4096 -3008
WIRE -3696 -3008 -3904 -3008
WIRE -4272 -2976 -4272 -3072
WIRE -4096 -2976 -4096 -3008
WIRE -4512 -2928 -4560 -2928
WIRE -4416 -2928 -4448 -2928
WIRE -4320 -2928 -4416 -2928
WIRE -3936 -2928 -4048 -2928
WIRE -3872 -2928 -3936 -2928
WIRE -4304 -2864 -4304 -2880
WIRE -4192 -2864 -4304 -2864
WIRE -4064 -2864 -4064 -2880
WIRE -4064 -2864 -4192 -2864
WIRE -3936 -2848 -3936 -2928
WIRE -4560 -2832 -4560 -2928
WIRE -4416 -2832 -4416 -2928
WIRE -4192 -2832 -4192 -2864
WIRE -4416 -2720 -4416 -2752
WIRE -4192 -2720 -4192 -2752
WIRE -4192 -2720 -4416 -2720
WIRE -3936 -2720 -3936 -2768
WIRE -3936 -2720 -4192 -2720
WIRE -4192 -2688 -4192 -2720
WIRE -4560 -2560 -4560 -2752
WIRE -4192 -2560 -4192 -2608
WIRE -4192 -2560 -4560 -2560
WIRE -3808 -2560 -3808 -2928
WIRE -3808 -2560 -4192 -2560
WIRE -3696 -2560 -3696 -2928
WIRE -3696 -2560 -3808 -2560
WIRE -3600 -2560 -3600 -2992
WIRE -3600 -2560 -3696 -2560
WIRE -4560 -2496 -4560 -2560
FLAG -3744 -3168 0
FLAG -4560 -2496 0
SYMBOL voltage -4560 -2848 R0
WINDOW 123 0 0 Left 2
WINDOW 39 0 0 Left 2
SYMATTR InstName V1
SYMATTR Value SINE(0 2 1000)
SYMBOL VacuumTube\\12AT7 -4272 -2928 R0
SYMATTR InstName U1
SYMBOL VacuumTube\\12AT7 -4096 -2928 M0
SYMATTR InstName U2
SYMBOL res -4288 -3232 R0
SYMATTR InstName R1
SYMATTR Value 110K
SYMBOL res -4112 -3232 R0
SYMATTR InstName R2
SYMATTR Value 90K
SYMBOL res -4208 -2848 R0
WINDOW 3 38 73 Left 2
SYMATTR Value 820
SYMATTR InstName R3
SYMBOL res -4208 -2704 R0
SYMATTR InstName R5
SYMATTR Value 24K
SYMBOL cap -3904 -3056 M270
WINDOW 0 32 32 VTop 2
WINDOW 3 57 76 VBottom 2
SYMATTR InstName C2
SYMATTR Value 0.1µ
SYMBOL cap -3904 -2992 M270
WINDOW 0 32 32 VTop 2
WINDOW 3 60 69 VBottom 2
SYMATTR InstName C3
SYMATTR Value 0.1µ
SYMBOL res -4432 -2848 R0
SYMATTR InstName R6
SYMATTR Value 1000K
SYMBOL res -3952 -2864 R0
SYMATTR InstName R7
SYMATTR Value 1000K
SYMBOL res -3616 -3088 R0
SYMATTR InstName R8
SYMATTR Value 220K
SYMBOL res -3712 -3024 R0
SYMATTR InstName R9
SYMATTR Value 220K
SYMBOL voltage -3744 -3280 R0
WINDOW 123 0 0 Left 2
WINDOW 39 0 0 Left 2
SYMATTR InstName V2
SYMATTR Value 150
SYMBOL cap -3808 -2944 R90
WINDOW 0 0 32 VBottom 2
WINDOW 3 32 32 VTop 2
SYMATTR InstName C1
SYMATTR Value 0.1µ
SYMBOL cap -4512 -2944 M90
WINDOW 0 0 32 VBottom 2
WINDOW 3 32 32 VTop 2
SYMATTR InstName C4
SYMATTR Value 0.02
TEXT -4592 -2472 Left 2 !.tran 0.1
